#opt=(calcfc,ts,noeigentest) freq B3LYP 6-31+G(d)

 alkene_transition_state

0 1
C          1.34679        1.46026       -0.69199
C          1.34674        1.46010        0.69202
H          2.27575        1.44918       -1.25381
H          2.27567        1.44899        1.25389
H          0.41372        1.54784       -1.23801
H          0.41365        1.54770        1.23799
Br         1.12025       -0.93331        0.00012
Br        -1.73568        0.26143       -0.00013


