%NProcShared=2
%Chk=checkpoint.chk
#n B3LYP/6-31G(d) Opt

 ditbutylteropyrenophane

0 1
C          1.01478       -5.77376        0.36734
C          0.60218       -4.41267        0.38106
C          0.03696       -6.80652        0.38248
C         -0.78579       -4.08107        0.40987
C         -1.75362       -5.11999        0.42476
C         -1.35272       -6.48223        0.41129
C          0.48563       -8.13957        0.36817
C         -1.24969       -2.73915        0.42450
C          1.59974       -3.42113        0.36537
C         -2.36790       -7.47502        0.42731
C         -3.14098       -4.79236        0.45350
C         -3.55965       -3.44869        0.46724
C         -4.11537       -5.80710        0.46861
C         -4.92641       -3.12912        0.49551
C         -5.47894       -5.48073        0.49685
C         -5.91435       -4.13910        0.51089
C         -3.71705       -7.14013        0.45533
H         -5.19883       -2.08366        0.50514
C         -2.60611       -2.43501        0.45254
H         -6.20442       -6.28411        0.50790
C          9.34438       -7.74218        0.19391
C          8.35485       -8.74733        0.20948
C          8.91255       -6.39694        0.20803
C          6.98932       -8.42927        0.23794
C          7.54722       -6.07137        0.23651
C          6.57174       -7.08584        0.25174
C          5.18437       -6.75827        0.28064
C          4.78348       -5.39615        0.29418
C          4.21649       -7.79730        0.29560
C          3.39378       -5.07186        0.32307
C          2.82853       -7.46570        0.32450
C          2.41595       -6.10462        0.33824
H          8.64435       -9.79038        0.19944
H          9.62383       -5.58376        0.19721
C          6.03681       -9.44333        0.25271
C          7.14782       -4.73822        0.24991
C          5.79862       -4.40348        0.27809
C          4.68037       -9.13934        0.28090
C          2.94511       -3.73881        0.33742
C          1.83099       -8.45725        0.34022
H         -2.16677       -8.53089        0.41904
H         -4.45449       -7.93488        0.46666
H          2.04539       -9.51074        0.33167
H         -0.17735       -8.98588        0.37784
H          6.34087      -10.48401        0.24241
H          4.02819       -9.99372        0.29036
H          7.88452       -3.94279        0.23854
H          5.59743       -3.34762        0.28641
H          3.60808       -2.89249        0.32774
H          1.38535       -2.36763        0.37391
H         -0.59746       -1.88481        0.41509
H         -2.90921       -1.39405        0.46276
C         -7.42757       -3.82946        0.54198
C         10.83627       -8.14214        0.16257
C         -7.73629       -2.31271        0.55423
C         -8.05277       -4.44323        1.81370
C         -8.10249       -4.43298       -0.70906
C         11.79082       -6.92368        0.14857
C         11.12031       -8.97210       -1.10839
C         11.17054       -8.98246        1.41436
H         11.61933       -6.29450       -0.75158
H         12.85203       -7.25467        0.12608
H         11.65540       -6.30193        1.05996
H         10.97650       -8.39485        2.33774
H         12.24034       -9.28477        1.41177
H         10.56488       -9.91106        1.46111
H         -7.30142       -1.82563        1.45377
H         -8.83347       -2.13403        0.57658
H         -7.33712       -1.81827       -0.35777
H         -7.58032       -4.01300        2.72323
H         -7.92494       -5.54503        1.84520
H         -9.14402       -4.23525        1.85601
H         -7.66617       -3.99530       -1.63298
H         -9.19453       -4.22483       -0.70665
H         -7.97618       -5.53447       -0.75453
H         10.88977       -8.37696       -2.01845
H         10.51312       -9.90039       -1.13861
H         12.18931       -9.27424       -1.15087


