#T b3lyp scf=tight gen pseudo=read opt freq

 Title

0 1
Pd         2.24800        1.60100        0.17600
P          4.58400        2.01300       -0.02400
C          4.95900        3.79400        0.19800
P          2.17600       -0.61300       -0.69100
C          0.50100       -1.36700       -0.59400
P         -0.09300        1.18800        0.21600
C         -0.29600       -0.60600        0.47800
P          2.32500        3.82000        1.04100
C          4.04700        4.38500        1.29600
H          4.72700        4.29600       -0.76500
H          6.03200        3.96100        0.43200
H          4.37400        3.98000        2.27700
H          4.11900        5.49200        1.33700
H          0.00700       -1.28600       -1.58600
H          0.53500       -2.43900       -0.29800
H         -1.36400       -0.90800        0.50800
H          0.16900       -0.85900        1.45700
H          4.79300        1.87600        1.36100
H          2.39100        4.37400       -0.25300
H          1.79800        0.12700       -1.83000
H         -0.12700        2.49100       -0.31000
H          4.59200        0.69500       -0.50300
H          2.50600       -1.91100       -1.12400
H         -0.25400        1.33700        1.60900
H          0.95700        3.62300        1.27600

H C P 0
6-31G(d)
****
Pd 0
Def2SVP
****






