%NProcShared=2
%Chk=checkpoint.chk
#n B3LYP/6-31G(d) Opt

 pyrene

0 1
C         -1.05275        2.79160        0.44293
C          0.25585        2.53589        0.02130
C         -1.82088        1.77823        1.02488
C         -1.28423        0.49280        1.19132
C          0.81116        1.25727        0.17873
C          0.03787        0.23069        0.76641
C          0.58687       -1.05845        0.92921
C         -0.18643       -2.08504        1.51687
C          1.90896       -1.32057        0.50428
C          0.36886       -3.36367        1.67424
C          2.44559       -2.60601        0.67067
C          1.67745       -3.61940        1.25257
H         -2.83239        1.99944        1.34402
C         -2.04250       -0.53438        1.77350
C          2.12273        0.98523       -0.23934
H         -1.47402        3.78079        0.31798
H          0.83223        3.33642       -0.42690
H          3.45709       -2.82724        0.35149
H          2.09869       -4.60860        1.37746
C         -1.49799       -1.81299        1.93498
H         -0.20753       -4.16421        2.12242
C          2.66724       -0.29338       -0.07787
H          2.72799        1.76187       -0.69158
H          3.68224       -0.47889       -0.40860
H         -3.05749       -0.34886        2.10424
H         -2.10324       -2.58962        2.38723


