%chk=C:\Users\test\Desktop\cch\TS\TS_template.chk
# hf/3-21g geom=connectivity

Required

0 1
 C(PDBName=C,ResName=,ResNum=0)                       -0.27500000    0.21600000   -0.73300000
 C(PDBName=C,ResName=,ResNum=0)                       -0.88200000    1.47800000   -0.81800000
 C(PDBName=C,ResName=,ResNum=0)                       -0.13300000    2.63300000   -0.55400000
 C(PDBName=C,ResName=,ResNum=0)                        1.21700000    2.52200000   -0.20800000
 C(PDBName=C,ResName=,ResNum=0)                        1.82600000    1.26700000   -0.12200000
 C(PDBName=C,ResName=,ResNum=0)                        1.07900000    0.11000000   -0.38400000
 H(PDBName=H,ResName=,ResNum=0)                       -1.91500000    1.55900000   -1.08300000
 H(PDBName=H,ResName=,ResNum=0)                        1.54200000   -0.85200000   -0.32000000
 C(PDBName=C,ResName=,ResNum=0)                        2.03400000    3.78500000    0.08000000
 C(PDBName=C,ResName=,ResNum=0)                        3.38500000    3.67300000    0.42700000
 C(PDBName=C,ResName=,ResNum=0)                        1.42400000    5.04100000   -0.00700000
 C(PDBName=C,ResName=,ResNum=0)                        4.13300000    4.82800000    0.69000000
 C(PDBName=C,ResName=,ResNum=0)                        2.17200000    6.19600000    0.25600000
 C(PDBName=C,ResName=,ResNum=0)                        3.52300000    6.08500000    0.60300000
 C(PDBName=C,ResName=,ResNum=0)                       -0.79100000    4.02500000   -0.64500000
 C(PDBName=C,ResName=,ResNum=0)                       -0.06500000    5.14600000   -0.39000000
 C(PDBName=C,ResName=,ResNum=0)                        4.04200000    2.28100000    0.51700000
 H(PDBName=H,ResName=,ResNum=0)                        5.07600000    2.19600000    0.78300000
 C(PDBName=C,ResName=,ResNum=0)                        3.31700000    1.16100000    0.26200000
 H(PDBName=H,ResName=,ResNum=0)                        3.71100000    0.16600000    0.30000000
 C(PDBName=C,ResName=,ResNum=0)                        4.34000000    7.34700000    0.89100000
 C(PDBName=C,ResName=,ResNum=0)                        3.73100000    8.60300000    0.80400000
 C(PDBName=C,ResName=,ResNum=0)                        5.69100000    7.23500000    1.23700000
 C(PDBName=C,ResName=,ResNum=0)                        4.47900000    9.75900000    1.06700000
 C(PDBName=C,ResName=,ResNum=0)                        6.43900000    8.39100000    1.50000000
 C(PDBName=C,ResName=,ResNum=0)                        5.82900000    9.64700000    1.41400000
 C(PDBName=C,ResName=,ResNum=0)                        6.64700000   10.91000000    1.70100000
 C(PDBName=C,ResName=,ResNum=0)                        7.99700000   10.79900000    2.04800000
 C(PDBName=C,ResName=,ResNum=0)                        6.03800000   12.16500000    1.61400000
 C(PDBName=C,ResName=,ResNum=0)                        8.74600000   11.95300000    2.31100000
 C(PDBName=C,ResName=,ResNum=0)                        6.78500000   13.32100000    1.87700000
 C(PDBName=C,ResName=,ResNum=0)                        8.13900000   13.21500000    2.22600000
 H(PDBName=H,ResName=,ResNum=0)                        9.77900000   11.87200000    2.57700000
 H(PDBName=H,ResName=,ResNum=0)                        6.32200000   14.28400000    1.81200000
 C(PDBName=C,ResName=,ResNum=0)                        1.51500000    7.58800000    0.16500000
 C(PDBName=C,ResName=,ResNum=0)                        2.24100000    8.71000000    0.42000000
 C(PDBName=C,ResName=,ResNum=0)                        6.34900000    5.84300000    1.32900000
 H(PDBName=H,ResName=,ResNum=0)                        7.38200000    5.75900000    1.59400000
 C(PDBName=C,ResName=,ResNum=0)                        5.62300000    4.72200000    1.07300000
 H(PDBName=H,ResName=,ResNum=0)                        6.08800000    3.76100000    1.13900000
 C(PDBName=C,ResName=,ResNum=0)                        3.82200000   11.15100000    0.97600000
 H(PDBName=H,ResName=,ResNum=0)                        2.78800000   11.23500000    0.71000000
 C(PDBName=C,ResName=,ResNum=0)                        4.54800000   12.27200000    1.23100000
 H(PDBName=H,ResName=,ResNum=0)                        4.08300000   13.23300000    1.16500000
 C(PDBName=C,ResName=,ResNum=0)                        8.65400000    9.40600000    2.13900000
 H(PDBName=H,ResName=,ResNum=0)                        9.68800000    9.32300000    2.40500000
 C(PDBName=C,ResName=,ResNum=0)                        7.92900000    8.28500000    1.88400000
 H(PDBName=H,ResName=,ResNum=0)                        8.39500000    7.32400000    1.95000000
 H(PDBName=H,ResName=,ResNum=0)                        0.48200000    7.67200000   -0.10000000
 H(PDBName=H,ResName=,ResNum=0)                        1.77500000    9.67100000    0.35500000
 H(PDBName=H,ResName=,ResNum=0)                       -1.82400000    4.10900000   -0.91000000
 H(PDBName=H,ResName=,ResNum=0)                       -0.53100000    6.10800000   -0.45600000
 C(PDBName=C,ResName=,ResNum=0)                       -1.09700000   -1.05300000   -1.02200000
 H(PDBName=H,ResName=,ResNum=0)                       -1.54300000   -1.40500000   -0.11500000
 H(PDBName=H,ResName=,ResNum=0)                       -1.86500000   -0.82700000   -1.73200000
 H(PDBName=H,ResName=,ResNum=0)                       -0.45500000   -1.81100000   -1.42000000
 C(PDBName=C,ResName=,ResNum=0)                        8.96100000   14.48500000    2.51400000
 H(PDBName=H,ResName=,ResNum=0)                        8.57400000   15.29900000    1.93800000
 H(PDBName=H,ResName=,ResNum=0)                        8.89700000   14.72200000    3.55600000
 H(PDBName=H,ResName=,ResNum=0)                        9.98400000   14.31500000    2.25000000
 Br(PDBName=Br,ResName=,ResNum=0)                      3.07400000    1.58600000    2.70800000
 Br(PDBName=Br,ResName=,ResNum=0)                      5.51700000   -0.23900000    3.24000000

 1 2 1.5 6 1.5 53 1.0
 2 3 1.5 7 1.0
 3 4 1.5 15 1.0
 4 5 1.5 9 1.0
 5 6 1.5 19 1.0
 6 8 1.0
 7
 8
 9 10 1.5 11 1.5
 10 12 1.5 17 1.0
 11 13 1.5 16 1.0
 12 14 1.5 39 1.0
 13 14 1.5 35 1.0
 14 21 1.0
 15 16 2.0 51 1.0
 16 52 1.0
 17 18 1.0 19 2.0
 18
 19 20 1.0
 20
 21 22 1.5 23 1.5
 22 24 1.5 36 1.0
 23 25 1.5 37 1.0
 24 26 1.5 41 1.0
 25 26 1.5 47 1.0
 26 27 1.0
 27 28 1.5 29 1.5
 28 30 1.5 45 1.0
 29 31 1.5 43 1.0
 30 32 1.5 33 1.0
 31 32 1.5 34 1.0
 32 57 1.0
 33
 34
 35 36 2.0 49 1.0
 36 50 1.0
 37 38 1.0 39 2.0
 38
 39 40 1.0
 40
 41 42 1.0 43 2.0
 42
 43 44 1.0
 44
 45 46 1.0 47 2.0
 46
 47 48 1.0
 48
 49
 50
 51
 52
 53 54 1.0 55 1.0 56 1.0
 54
 55
 56
 57 58 1.0 59 1.0 60 1.0
 58
 59
 60
 61
 62


