%NProcShared=2
%Chk=checkpoint.chk
#opt=(calcfc,ts,noeigentest) freq B3LYP 6-31+G(d)

 TS

0 1
C         -0.26400        0.22900       -0.74100
C         -0.87100        1.49100       -0.82600
C         -0.12200        2.64600       -0.56200
C          1.22800        2.53500       -0.21600
C          1.83700        1.28000       -0.13000
C          1.09000        0.12300       -0.39200
H         -1.90400        1.57200       -1.09100
H          1.55300       -0.83900       -0.32800
C          2.04500        3.79800        0.07200
C          3.39600        3.68600        0.41900
C          1.43500        5.05400       -0.01500
C          4.14400        4.84100        0.68200
C          2.18300        6.20900        0.24800
C          3.53400        6.09800        0.59500
C         -0.78000        4.03800       -0.65300
C         -0.05400        5.15900       -0.39800
C          4.05300        2.29400        0.50900
H          5.08700        2.20900        0.77500
C          3.32700        1.17300        0.25400
H          3.72200        0.17900        0.29200
C          4.35100        7.36000        0.88300
C          3.74200        8.61600        0.79600
C          5.70200        7.24800        1.22900
C          4.49000        9.77200        1.05900
C          6.45000        8.40400        1.49200
C          5.84000        9.66000        1.40600
C          6.65800       10.92300        1.69300
C          8.00800       10.81200        2.04000
C          6.04900       12.17800        1.60600
C          8.75700       11.96600        2.30300
C          6.79600       13.33400        1.86900
C          8.15000       13.22800        2.21800
H          9.79000       11.88500        2.56900
H          6.33300       14.29700        1.80400
C          1.52600        7.60100        0.15700
C          2.25200        8.72300        0.41200
C          6.36000        5.85600        1.32100
H          7.39300        5.77200        1.58600
C          5.63400        4.73500        1.06500
H          6.09900        3.77400        1.13100
C          3.83300       11.16400        0.96800
H          2.79900       11.24800        0.70200
C          4.55900       12.28500        1.22300
H          4.09400       13.24600        1.15700
C          8.66500        9.41900        2.13100
H          9.69900        9.33600        2.39700
C          7.94000        8.29800        1.87600
H          8.40600        7.33700        1.94200
H          0.49300        7.68500       -0.10800
H          1.78600        9.68400        0.34700
H         -1.81300        4.12200       -0.91800
H         -0.52000        6.12100       -0.46400
C         -1.08600       -1.04000       -1.03000
H         -1.53200       -1.39200       -0.12300
H         -1.85400       -0.81400       -1.74000
H         -0.44400       -1.79800       -1.42800
C          8.97200       14.49800        2.50600
H          8.58500       15.31200        1.93000
H          8.90800       14.73500        3.54800
H          9.99500       14.32800        2.24200
Br         3.03000        1.53000        2.73000
Br         2.21400        1.27900        5.62700

