%NProcShared=2
%Chk=teropyrene.chk
#n B3LYP/6-31G(d) Opt

 teropyrene

0 1
C          1.00900       -5.79900        0.36800
C          0.59600       -4.43700        0.38200
C          0.03100       -6.83200        0.38400
C         -0.79200       -4.10500        0.41200
C         -1.75900       -5.14500        0.42700
C         -1.35900       -6.50700        0.41300
C          0.48000       -8.16500        0.36900
C         -1.25500       -2.76200        0.42700
C          1.59400       -3.44600        0.36600
C         -2.37400       -7.50100        0.43000
C         -3.14600       -4.81700        0.45500
C         -3.56300       -3.46900        0.46900
C         -4.12300       -5.83600        0.47000
C         -4.93100       -3.15400        0.49600
C         -5.48700       -5.50600        0.49700
C         -5.88600       -4.17000        0.51000
C         -3.72400       -7.16800        0.45800
H         -5.26100       -2.12100        0.50600
C         -2.61100       -2.45600        0.45500
H         -6.24400       -6.28200        0.50900
C          9.30500       -7.75700        0.19500
C          8.35000       -8.77400        0.21000
C          8.90600       -6.42100        0.20800
C          6.98300       -8.45900        0.23700
C          7.54200       -6.09200        0.23500
C          6.56500       -7.11100        0.25000
C          5.17800       -6.78300        0.27900
C          4.77800       -5.42100        0.29200
C          4.21100       -7.82300        0.29400
C          3.38800       -5.09700        0.32200
C          2.82300       -7.49100        0.32300
C          2.41000       -6.13000        0.33800
H          8.68000       -9.80600        0.19900
H          9.66300       -5.64600        0.19700
C          6.03100       -9.47200        0.25100
C          7.14300       -4.76000        0.24800
C          5.79300       -4.42700        0.27600
C          4.67400       -9.16600        0.27900
C          2.93900       -3.76400        0.33700
C          1.82500       -8.48200        0.34000
H         -2.17300       -8.55700        0.42200
H         -4.46200       -7.96200        0.46900
H          2.03900       -9.53600        0.33100
H         -0.18300       -9.01100        0.37900
H          6.33600      -10.51200        0.24100
H          4.02200      -10.02000        0.28800
H          7.88100       -3.96500        0.23700
H          5.59100       -3.37100        0.28400
H          3.60200       -2.91700        0.32700
H          1.38000       -2.39300        0.37500
H         -0.60200       -1.90900        0.41800
H         -2.91600       -1.41600        0.46500
H         -6.89013       -3.93264        0.53002
H         10.30917       -7.99412        0.17423


