#n B3LYP/6-31G(d) Opt

 Title

0 1
C         -0.29137        0.29371       -0.78192
C         -0.86282        1.56612       -0.82735
C         -0.09474        2.70409       -0.53844
C          1.27244        2.58641       -0.19061
C          1.83732        1.28980       -0.14205
C          1.05717        0.16045       -0.44099
H         -1.90976        1.66704       -1.09297
H          1.50103       -0.82745       -0.40319
C          2.04554        3.75990        0.09129
C          3.42389        3.66069        0.43175
C          1.42329        5.04032        0.01546
C          4.17787        4.84670        0.69303
C          2.18423        6.21958        0.28035
C          3.56020        6.12443        0.61814
C         -0.68760        3.95703       -0.59962
C          0.04850        5.09901       -0.33052
C          4.05191        2.26833        0.50184
C          3.27137        1.09755        0.22562
C          4.32439        7.31712        0.88503
C          3.70593        8.59551        0.80876
C          5.70107        7.22233        1.22711
C          4.45961        9.77895        1.07162
C          6.46225        8.40058        1.49175
C          5.83410        9.67152        1.41144
C          6.59026       10.85050        1.67493
C          7.95657       10.76405        2.01434
C          5.98399       12.12199        1.60049
C          8.69665       11.92784        2.27283
C          6.73285       13.28009        1.86083
C          8.08968       13.18683        2.19736
H          9.74715       11.85846        2.53361
H          6.26049       14.25432        1.80182
C          1.61011        7.50385        0.21588
C          2.34304        8.64760        0.46991
C          6.27423        5.94132        1.29587
H          7.30476        5.76903        1.54956
C          5.54083        4.79788        1.04006
H          6.10189        3.88884        1.13439
C          3.88837       11.07808        1.00779
C          4.63760       12.22055        1.26709
C          8.56609        9.51668        2.09131
H          9.61543        9.43270        2.35087
C          7.83971        8.35850        1.83676
H          8.40326        7.44727        1.92264
C         -1.12943       -0.91055       -1.09785
H         -1.98015       -0.97002       -0.38672
H         -1.52548       -0.82861       -2.13196
H         -0.54238       -1.85045       -1.02105
C          8.89877       14.41918        2.47754
H          8.28765       15.34167        2.38030
H          9.30218       14.37359        3.51104
H          9.74394       14.48166        1.76010
Br         3.40147        1.44653        2.17544
H          0.57974        7.68221       -0.03120
H         -1.73450        4.05916       -0.86373
H         -0.50930        6.01336       -0.41209
H          1.78950        9.56563        0.38792
H          2.85904       11.26305        0.75968
H          4.15606       13.19001        1.20549
H          3.57723        0.02960        0.21012
H          5.13820        2.20116        0.63791
Br         7.10579       -0.64393        1.00983

